%chk=C:\Users\ros\Dropbox\proyecto-NTHW\complejos-rutenio\acac_sp.chk
%mem=1GB
%nprocshared=2
# 3-21g geom=connectivity m062x

acac

-1 1
 C                 -2.49438600   -0.87809900    0.00023400
 H                 -3.10695400   -0.66538200    0.88473600
 H                 -2.20748700   -1.93481700    0.00055000
 H                 -3.10701000   -0.66594100   -0.88437900
 C                 -1.27970600    0.07577200   -0.00006300
 C                  0.00000200   -0.55395600    0.00003100
 H                  0.00000200   -1.64127100    0.00003500
 C                  1.27970600    0.07577600    0.00011400
 C                  2.49438400   -0.87809800   -0.00026100
 H                  3.10666500   -0.66567400   -0.88503600
 H                  2.20750400   -1.93481400   -0.00016300
 H                  3.10729700   -0.66562800    0.88407300
 O                 -1.55098200    1.32032400   -0.00045700
 O                  1.55097900    1.32032000    0.00043900

 1 2 1.0 3 1.0 4 1.0 5 1.0
 2
 3
 4
 5 6 1.5 13 2.0
 6 7 1.0 8 1.5
 7
 8 9 1.0 14 2.0
 9 10 1.0 11 1.0 12 1.0
 10
 11
 12
 13
 14

