%chk=C:\Users\ros\Dropbox\proyecto-NTHW\complejos-rutenio\pdto.chk
%mem=12GB
%nprocshared=16
# opt lanl2dz nosymm geom=connectivity m062x

ru pdto

0 1
 P                 -0.67875800   -0.07451000   -1.24258900
 C                 -1.73120900   -1.56783200   -1.62947000
 C                 -2.33345700   -2.25942400   -0.56434200
 H                 -2.15804200   -1.92791800    0.45632600
 C                 -3.15050500   -3.37281200   -0.81547800
 H                 -3.61571500   -3.90124500    0.01005900
 C                 -3.36230200   -3.80416700   -2.13315000
 H                 -3.98993800   -4.66710600   -2.32940600
 C                 -2.75670800   -3.12007300   -3.20022700
 H                 -2.91531900   -3.45402000   -4.22003600
 C                 -1.94605700   -2.00398400   -2.95019700
 H                 -1.47402300   -1.48162700   -3.77858000
 C                 -1.77466000    1.37115400   -1.72137500
 C                 -2.96157500    1.20705500   -2.45386800
 H                 -3.29583300    0.21543700   -2.74183100
 C                 -3.73432500    2.32563800   -2.80784400
 H                 -4.65129500    2.18757900   -3.37074500
 C                 -3.32543000    3.61504200   -2.43778700
 H                 -3.92229200    4.47704500   -2.71636600
 C                 -2.14341900    3.78547600   -1.69883400
 H                 -1.82426200    4.77828500   -1.39990500
 C                 -1.37759500    2.66759800   -1.33867300
 H                 -0.48015700    2.80593300   -0.73761100
 C                  0.56494300   -0.10614000   -2.64521100
 C                  1.28432700   -1.29728900   -2.86358000
 H                  1.05081100   -2.18454900   -2.27862500
 C                  2.28375700   -1.35340800   -3.84214100
 H                  2.82525000   -2.27937800   -4.00696500
 C                  2.58078600   -0.21452000   -4.61085300
 H                  3.35243500   -0.25790200   -5.37239200
 C                  1.86099700    0.97034300   -4.40360100
 H                  2.07024800    1.84655900   -5.00851400
 C                  0.85225900    1.02451200   -3.42566900
 H                  0.28490600    1.94189700   -3.29396400

 1 2 1.0 13 1.0 24 1.0
 2 3 1.5 11 1.5
 3 4 1.0 5 1.5
 4
 5 6 1.0 7 1.5
 6
 7 8 1.0 9 1.5
 8
 9 10 1.0 11 1.5
 10
 11 12 1.0
 12
 13 14 1.5 22 1.5
 14 15 1.0 16 1.5
 15
 16 17 1.0 18 1.5
 17
 18 19 1.0 20 1.5
 19
 20 21 1.0 22 1.5
 21
 22 23 1.0
 23
 24 25 1.5 33 1.5
 25 26 1.0 27 1.5
 26
 27 28 1.0 29 1.5
 28
 29 30 1.0 31 1.5
 30
 31 32 1.0 33 1.5
 32
 33 34 1.0
 34

